dana4|P17|mol|1|dock1
  -GOLD-   1 41813293D 1   1.00000     0.00000

 81 84  0  0  0  0  0  0  0  0  3 V2000
   -8.4198   14.7793   24.7091 S   0  0  0  0  0  0  0  0  0  0  0  0
   -9.1616   16.3811   33.1263 O   0  0  0  0  0  0  0  0  0  0  0  0
  -11.5090   15.4064   33.3029 O   0  0  0  0  0  0  0  0  0  0  0  0
  -10.2323   14.6946   31.1836 O   0  0  0  0  0  0  0  0  0  0  0  0
  -11.3114   17.8667   27.0327 O   0  0  0  0  0  0  0  0  0  0  0  0
   -8.7406   14.5641   29.4598 O   0  0  0  0  0  0  0  0  0  0  0  0
   -9.8540   14.2902   24.7752 O   0  0  0  0  0  0  0  0  0  0  0  0
   -7.4889   13.6873   25.1994 O   0  0  0  0  0  0  0  0  0  0  0  0
  -10.7528   15.5818   29.0640 N   0  0  0  0  0  0  0  0  0  0  0  0
   -8.1895   16.1908   25.7619 N   0  0  0  0  0  0  0  0  0  0  0  0
   -9.5710   14.1221   33.5471 C   0  0  2  0  0  0  0  0  0  0  0  0
  -10.1021   15.4711   33.8491 C   0  0  1  0  0  0  0  0  0  0  0  0
   -9.1826   14.2705   32.0549 C   0  0  2  0  0  0  0  0  0  0  0  0
  -10.7215   13.2659   34.0721 C   0  0  0  0  0  0  0  0  0  0  0  0
   -8.2527   15.4449   32.3710 C   0  0  0  0  0  0  0  0  0  0  0  0
  -11.8446   13.9384   33.2893 C   0  0  1  0  0  0  0  0  0  0  0  0
  -10.5612   15.6213   27.6279 C   0  0  2  0  0  0  0  0  0  0  0  0
  -10.1426   17.0610   27.1587 C   0  0  1  0  0  0  0  0  0  0  0  0
   -9.8127   14.9934   29.9031 C   0  0  0  0  0  0  0  0  0  0  0  0
   -9.4322   17.0410   25.7732 C   0  0  0  0  0  0  0  0  0  0  0  0
  -11.9163   15.2143   26.9397 C   0  0  0  0  0  0  0  0  0  0  0  0
   -7.0147   16.9694   25.2460 C   0  0  0  0  0  0  0  0  0  0  0  0
   -6.3241   17.8416   26.3317 C   0  0  0  0  0  0  0  0  0  0  0  0
  -12.3716   13.9004   27.4970 C   0  0  0  0  0  0  0  0  0  0  0  0
   -8.0192   15.1854   23.0162 C   0  0  0  0  0  0  0  0  0  0  0  0
   -5.6717   16.9319   27.3860 C   0  0  0  0  0  0  0  0  0  0  0  0
   -5.2428   18.6985   25.6693 C   0  0  0  0  0  0  0  0  0  0  0  0
  -11.6851   12.7885   27.2462 C   0  0  0  0  0  0  0  0  0  0  0  0
  -13.5648   13.8514   28.3465 C   0  0  0  0  0  0  0  0  0  0  0  0
  -12.1223   11.5167   27.8248 C   0  0  0  0  0  0  0  0  0  0  0  0
  -13.9577   12.6969   28.8774 C   0  0  0  0  0  0  0  0  0  0  0  0
  -13.2024   11.4739   28.6038 C   0  0  0  0  0  0  0  0  0  0  0  0
   -7.3899   15.7692   20.3558 C   0  0  0  0  0  0  0  0  0  0  0  0
   -8.6261   13.9095   34.0639 H   0  0  0  0  0  0  0  0  0  0  0  0
  -10.1764   15.6054   34.9366 H   0  0  0  0  0  0  0  0  0  0  0  0
   -8.7021   13.3735   31.6380 H   0  0  0  0  0  0  0  0  0  0  0  0
  -10.8153   13.4838   35.1443 H   0  0  0  0  0  0  0  0  0  0  0  0
  -10.6580   12.1806   33.9096 H   0  0  0  0  0  0  0  0  0  0  0  0
   -7.7828   15.9032   31.4900 H   0  0  0  0  0  0  0  0  0  0  0  0
   -7.4770   15.0747   33.0557 H   0  0  0  0  0  0  0  0  0  0  0  0
  -11.7168   13.6239   32.2547 H   0  0  0  0  0  0  0  0  0  0  0  0
   -9.7937   14.8931   27.3324 H   0  0  0  0  0  0  0  0  0  0  0  0
   -9.4790   17.4931   27.9142 H   0  0  0  0  0  0  0  0  0  0  0  0
   -9.1697   18.0758   25.5465 H   0  0  0  0  0  0  0  0  0  0  0  0
  -10.1062   16.6655   24.9987 H   0  0  0  0  0  0  0  0  0  0  0  0
  -11.6043   15.8893   29.4591 H   0  0  0  0  0  0  0  0  0  0  0  0
  -12.6744   15.9777   27.1461 H   0  0  0  0  0  0  0  0  0  0  0  0
  -11.7162   15.1192   25.8633 H   0  0  0  0  0  0  0  0  0  0  0  0
   -6.2678   16.2574   24.8704 H   0  0  0  0  0  0  0  0  0  0  0  0
   -7.0556   18.5005   26.8168 H   0  0  0  0  0  0  0  0  0  0  0  0
  -11.0762   18.8123   27.2024 H   0  0  0  0  0  0  0  0  0  0  0  0
   -6.4374   16.2785   27.8297 H   0  0  0  0  0  0  0  0  0  0  0  0
   -5.2162   17.5511   28.1715 H   0  0  0  0  0  0  0  0  0  0  0  0
   -4.8971   16.3175   26.9062 H   0  0  0  0  0  0  0  0  0  0  0  0
   -4.7312   19.2978   26.4362 H   0  0  0  0  0  0  0  0  0  0  0  0
   -4.5161   18.0440   25.1684 H   0  0  0  0  0  0  0  0  0  0  0  0
   -5.7083   19.3656   24.9300 H   0  0  0  0  0  0  0  0  0  0  0  0
  -10.8177   12.8262   26.6379 H   0  0  0  0  0  0  0  0  0  0  0  0
  -14.1076   14.7402   28.5473 H   0  0  0  0  0  0  0  0  0  0  0  0
  -11.5757   10.6297   27.6282 H   0  0  0  0  0  0  0  0  0  0  0  0
  -14.8163   12.6637   29.4991 H   0  0  0  0  0  0  0  0  0  0  0  0
  -13.5152   10.5527   29.0260 H   0  0  0  0  0  0  0  0  0  0  0  0
  -13.2422   13.5626   33.6625 C   0  0  0  0  0  0  0  0  0  0  0  0
  -14.2954   13.8757   32.8093 O   0  5  0  0  0  0  0  0  0  0  0  0
  -13.4580   12.9564   34.7173 O   0  0  0  0  0  0  0  0  0  0  0  0
   -8.3000   16.4962   20.9993 C   0  0  0  0  0  0  0  0  0  0  0  0
   -8.7907   17.2921   20.4991 H   0  0  0  0  0  0  0  0  0  0  0  0
   -7.0111   14.3947   22.3062 C   0  0  0  0  0  0  0  0  0  0  0  0
   -6.5217   13.5946   22.8025 H   0  0  0  0  0  0  0  0  0  0  0  0
   -7.3474   17.6129   24.4244 H   0  0  0  0  0  0  0  0  0  0  0  0
   -6.7134   14.6725   21.0399 C   0  0  0  0  0  0  0  0  0  0  0  0
   -5.9862   14.0963   20.5269 H   0  0  0  0  0  0  0  0  0  0  0  0
   -8.6272   16.1936   22.3914 C   0  0  0  0  0  0  0  0  0  0  0  0
   -9.3575   16.7689   22.9009 H   0  0  0  0  0  0  0  0  0  0  0  0
   -7.0608   16.0708   18.9277 C   0  0  0  0  0  0  0  0  0  0  0  0
   -6.1769   15.4928   18.6230 H   0  0  0  0  0  0  0  0  0  0  0  0
   -6.9130   17.1509   18.7861 H   0  0  0  0  0  0  0  0  0  0  0  0
   -8.1757   15.6173   18.0884 N   0  3  0  0  0  0  0  0  0  0  0  0
   -9.0508   16.0412   18.4254 H   0  0  0  0  0  0  0  0  0  0  0  0
   -8.2474   14.5922   18.1410 H   0  0  0  0  0  0  0  0  0  0  0  0
   -8.0126   15.9008   17.1125 H   0  0  0  0  0  0  0  0  0  0  0  0
  1  7  2  0  0  0  0
  1  8  2  0  0  0  0
  1 10  1  0  0  0  0
  1 25  1  0  0  0  0
  2 12  1  0  0  0  0
  2 15  1  0  0  0  0
  3 12  1  0  0  0  0
  3 16  1  0  0  0  0
  4 13  1  0  0  0  0
  4 19  1  0  0  0  0
  5 18  1  0  0  0  0
  5 51  1  0  0  0  0
  6 19  2  0  0  0  0
  9 17  1  0  0  0  0
  9 19  1  0  0  0  0
  9 46  1  0  0  0  0
 10 20  1  0  0  0  0
 10 22  1  0  0  0  0
 11 12  1  0  0  0  0
 11 13  1  0  0  0  0
 11 14  1  0  0  0  0
 11 34  1  0  0  0  0
 12 35  1  0  0  0  0
 13 15  1  0  0  0  0
 13 36  1  0  0  0  0
 14 16  1  0  0  0  0
 14 37  1  0  0  0  0
 14 38  1  0  0  0  0
 15 39  1  0  0  0  0
 15 40  1  0  0  0  0
 16 41  1  0  0  0  0
 16 63  1  0  0  0  0
 17 18  1  0  0  0  0
 17 21  1  0  0  0  0
 17 42  1  0  0  0  0
 18 20  1  0  0  0  0
 18 43  1  0  0  0  0
 20 44  1  0  0  0  0
 20 45  1  0  0  0  0
 21 24  1  0  0  0  0
 21 47  1  0  0  0  0
 21 48  1  0  0  0  0
 22 23  1  0  0  0  0
 22 49  1  0  0  0  0
 22 70  1  0  0  0  0
 23 26  1  0  0  0  0
 23 27  1  0  0  0  0
 23 50  1  0  0  0  0
 24 28  2  0  0  0  0
 24 29  1  0  0  0  0
 25 68  1  0  0  0  0
 25 73  2  0  0  0  0
 26 52  1  0  0  0  0
 26 53  1  0  0  0  0
 26 54  1  0  0  0  0
 27 55  1  0  0  0  0
 27 56  1  0  0  0  0
 27 57  1  0  0  0  0
 28 30  1  0  0  0  0
 28 58  1  0  0  0  0
 29 31  2  0  0  0  0
 29 59  1  0  0  0  0
 30 32  2  0  0  0  0
 30 60  1  0  0  0  0
 31 32  1  0  0  0  0
 31 61  1  0  0  0  0
 32 62  1  0  0  0  0
 33 66  2  0  0  0  0
 33 71  1  0  0  0  0
 33 75  1  0  0  0  0
 63 64  1  0  0  0  0
 63 65  2  0  0  0  0
 66 67  1  0  0  0  0
 66 73  1  0  0  0  0
 68 69  1  0  0  0  0
 68 71  2  0  0  0  0
 71 72  1  0  0  0  0
 73 74  1  0  0  0  0
 75 76  1  0  0  0  0
 75 77  1  0  0  0  0
 75 78  1  0  0  0  0
 78 79  1  0  0  0  0
 78 80  1  0  0  0  0
 78 81  1  0  0  0  0
M  CHG  1  64  -1
M  CHG  1  78   1
M  END
> <Clean Energy>
118.739

> <Gold.Version>
5.6.1

> <Gold.Id.Protein>
ID|ID_protein|mol2

> <Gold.Goldscore.Fitness>
98.0677

> <Gold.Goldscore.Internal.Vdw>
-5.4819

> <Gold.Goldscore.Internal.Torsion>
-11.0889

> <Gold.Goldscore.External.Vdw>
66.3930

> <Gold.Goldscore.Internal.HBond>
0.0000

> <Gold.Goldscore.External.HBond>
12.4364

> <Gold.Goldscore.Internal.Correction>
-10.9116

> <Gold.Goldscore.Reference.RMSD>
7.1958

> <Gold.Goldscore.Hbonds>
donor molecule, donor type, donor heavy atom, donor atom, acceptor molecule, acceptor atom, score
      P1  H  1141  2124       L1     8  0.06
      P1  H   381  2001       L1     8  0.05
      P1  H   976  2166       L1     3  0.05
      P1  H    73  2240       L1    64  0.21
      P1  H   984  2167       L1     3  0.27
      L1  H     5    51       P1   958  1.00
      L1  H     9    46       P1   970  0.03
      L1  H    78    79       P1   227  0.04
      L1  H    78    81       P1   231  0.31

> <Gold.Goldscore.Internal.Vdw.Weighted>
-5.4819

> <Gold.Goldscore.Internal.Torsion.Weighted>
-11.0889

> <Gold.Goldscore.External.Vdw.Weighted>
91.2904

> <Gold.Goldscore.Internal.HBond.Weighted>
0.0000

> <Gold.Goldscore.External.HBond.Weighted>
12.4364

> <Gold.Goldscore.Internal.Correction.Weighted>
-10.9116

> <Gold.Reference.RMSD>
7.1958

> <Gold.Protein.RotatedTorsions>
[ 1648  237  236  233 ] final -165.57 input   60.00 | X-H torsion
[ 1672  356  355  354 ] final  -46.40 input   60.00 | X-H torsion
[ 1841  613  612  609 ] final   55.34 input   60.00 | X-H torsion
[ 3049 1373 1372 1369 ] final   81.93 input   60.00 | X-H torsion
[ 1557  205  204  201 ] final   74.80 input   60.00 | X-H torsion
[ 2168  965  964  961 ] final  139.45 input   60.00 | X-H torsion
[ 2192  997  996  993 ] final   70.11 input   60.00 | X-H torsion
[ 2139 1116 1115 1114 ] final   58.96 input   60.00 | X-H torsion

> <Gold.Protein.ActiveResidues>
 LEU5    ARG8    PRO9    LEU10   ALA22   LEU23   LEU24   ASP25   THR26   GLY27  
 ALA28   ASP29   ASP30   THR31   VAL32   LEU33   GLU34   LYS45   MET46   ILE47  
 GLY48   GLY49   ILE50   GLY51   GLY52   PHE53   ILE54   VAL56   GLN58   THR74  
 VAL75   LEU76   VAL77   PRO79   THR80   PRO81   VAL82   ASN83   ILE84   ILE85  
 GLY86   ARG87   ASN88   LEU89   LEU90   LEU97   ARG8    PRO9    LEU10   ALA22  
 LEU23   LEU24   ASP25   THR26   GLY27   ALA28   ASP29   ASP30   THR31   VAL32  
 LEU33   GLU34   LYS45   MET46   ILE47   GLY48   GLY49   ILE50   GLY51   GLY52  
 PHE53   ILE54   VAL56   THR74   VAL75   LEU76   PRO79   THR80   PRO81   VAL82  
 ASN83   ILE84   ILE85   GLY86   ARG87   ASN88   LEU89   LEU90   LEU97  

> <Gold.Protein.RotatedAtoms>
  -11.4185   24.8276   26.5607 H   0  0  0  0  0  0  0  0  0  0  0  0  # atno 1557 bound_to 205 
  -16.4416   18.9488   16.0121 H   0  0  0  0  0  0  0  0  0  0  0  0  # atno 1648 bound_to 237 
   -3.9385   14.0188   12.0355 H   0  0  0  0  0  0  0  0  0  0  0  0  # atno 1672 bound_to 356 
   -4.8274   15.3648   11.6539 H   0  0  0  0  0  0  0  0  0  0  0  0  # atno 1673 bound_to 356 
   -4.1355   15.2264   13.1538 H   0  0  0  0  0  0  0  0  0  0  0  0  # atno 1674 bound_to 356 
  -12.7411   10.3242   23.4370 H   0  0  0  0  0  0  0  0  0  0  0  0  # atno 1841 bound_to 613 
   -9.4433   12.9392   39.3456 H   0  0  0  0  0  0  0  0  0  0  0  0  # atno 2139 bound_to 1116
  -10.9536   12.8452   40.0218 H   0  0  0  0  0  0  0  0  0  0  0  0  # atno 2140 bound_to 1116
   -9.7943   13.8068   40.7136 H   0  0  0  0  0  0  0  0  0  0  0  0  # atno 2141 bound_to 1116
  -16.2529   23.0859   26.5853 H   0  0  0  0  0  0  0  0  0  0  0  0  # atno 2168 bound_to 965 
   -9.2219   22.4320   37.3434 H   0  0  0  0  0  0  0  0  0  0  0  0  # atno 2192 bound_to 997 
   -2.9277   16.2725   30.2595 H   0  0  0  0  0  0  0  0  0  0  0  0  # atno 3049 bound_to 1373
  -14.8404   19.2375   15.9859 LP  0  0  0  0  0  0  0  0  0  0  0  0  # atno 3161 bound_to 237 
  -15.5687   18.7845   17.3755 LP  0  0  0  0  0  0  0  0  0  0  0  0  # atno 3162 bound_to 237 
  -14.3375   10.0205   23.3521 LP  0  0  0  0  0  0  0  0  0  0  0  0  # atno 3183 bound_to 613 
  -13.6877   11.2390   22.4804 LP  0  0  0  0  0  0  0  0  0  0  0  0  # atno 3184 bound_to 613 
   -1.5593   17.0391   29.8260 LP  0  0  0  0  0  0  0  0  0  0  0  0  # atno 3221 bound_to 1373
   -2.5818   17.7298   30.8956 LP  0  0  0  0  0  0  0  0  0  0  0  0  # atno 3222 bound_to 1373
  -12.8604   24.0987   26.7546 LP  0  0  0  0  0  0  0  0  0  0  0  0  # atno 3235 bound_to 205 
  -12.7138   25.7053   27.0077 LP  0  0  0  0  0  0  0  0  0  0  0  0  # atno 3236 bound_to 205 
  -14.8770   22.2767   26.9018 LP  0  0  0  0  0  0  0  0  0  0  0  0  # atno 3271 bound_to 965 
  -14.8187   23.8384   26.4282 LP  0  0  0  0  0  0  0  0  0  0  0  0  # atno 3272 bound_to 965 
   -8.4070   22.8871   36.0105 LP  0  0  0  0  0  0  0  0  0  0  0  0  # atno 3287 bound_to 997 
   -8.1899   23.6880   37.4169 LP  0  0  0  0  0  0  0  0  0  0  0  0  # atno 3288 bound_to 997 

$$$$
