1dana6|M14|mol|1|dock1
  -GOLD-   1 31815293D 1   1.00000     0.00000

 93 97  0  0  0  0  0  0  0  0  3 V2000
   -8.3074   14.6382   24.6318 S   0  0  0  0  0  0  0  0  0  0  0  0
  -10.0012   16.6657   33.9593 O   0  0  0  0  0  0  0  0  0  0  0  0
  -12.1006   15.5105   33.1040 O   0  0  0  0  0  0  0  0  0  0  0  0
  -10.3122   15.9354   31.2818 O   0  0  0  0  0  0  0  0  0  0  0  0
  -11.0928   18.0232   26.6972 O   0  0  0  0  0  0  0  0  0  0  0  0
   -8.6743   15.9520   29.6791 O   0  0  0  0  0  0  0  0  0  0  0  0
   -9.6195   13.9316   24.9152 O   0  0  0  0  0  0  0  0  0  0  0  0
   -7.1595   13.6720   24.8507 O   0  0  0  0  0  0  0  0  0  0  0  0
  -10.8465   15.9922   28.9687 N   0  0  0  0  0  0  0  0  0  0  0  0
   -8.0724   16.0059   25.7440 N   0  0  0  0  0  0  0  0  0  0  0  0
   -8.4801   16.5784   18.9424 N   0  0  0  0  0  0  0  0  0  0  0  0
  -10.0384   14.4275   33.2972 C   0  0  2  0  0  0  0  0  0  0  0  0
  -10.8697   15.4509   33.9741 C   0  0  1  0  0  0  0  0  0  0  0  0
   -9.3980   15.2548   32.1520 C   0  0  2  0  0  0  0  0  0  0  0  0
  -11.0802   13.3311   33.1110 C   0  0  0  0  0  0  0  0  0  0  0  0
   -8.7962   16.2443   33.1592 C   0  0  0  0  0  0  0  0  0  0  0  0
  -12.1357   14.1772   32.4080 C   0  0  1  0  0  0  0  0  0  0  0  0
  -10.4903   15.8267   27.5742 C   0  0  2  0  0  0  0  0  0  0  0  0
   -9.9780   17.1752   26.9603 C   0  0  1  0  0  0  0  0  0  0  0  0
   -9.8762   16.0120   29.9657 C   0  0  0  0  0  0  0  0  0  0  0  0
   -9.2275   16.9640   25.6157 C   0  0  0  0  0  0  0  0  0  0  0  0
   -6.7761   16.6777   25.4049 C   0  0  0  0  0  0  0  0  0  0  0  0
   -6.1081   17.3862   26.6171 C   0  0  1  0  0  0  0  0  0  0  0  0
   -8.3048   15.1938   22.9309 C   0  0  0  0  0  0  0  0  0  0  0  0
   -5.7737   16.3351   27.6958 C   0  0  0  0  0  0  0  0  0  0  0  0
   -4.8102   18.1233   26.1554 C   0  0  0  0  0  0  0  0  0  0  0  0
   -7.1842   15.6090   22.3466 C   0  0  0  0  0  0  0  0  0  0  0  0
   -9.5524   15.2027   22.1872 C   0  0  0  0  0  0  0  0  0  0  0  0
   -9.5797   15.6357   20.9316 C   0  0  0  0  0  0  0  0  0  0  0  0
   -8.3593   16.1113   20.2770 C   0  0  0  0  0  0  0  0  0  0  0  0
   -9.1909   14.0933   33.9097 H   0  0  0  0  0  0  0  0  0  0  0  0
  -11.1804   15.0821   34.9610 H   0  0  0  0  0  0  0  0  0  0  0  0
   -8.6772   14.6842   31.5496 H   0  0  0  0  0  0  0  0  0  0  0  0
  -11.4217   13.0448   34.1150 H   0  0  0  0  0  0  0  0  0  0  0  0
  -10.7786   12.4389   32.5446 H   0  0  0  0  0  0  0  0  0  0  0  0
   -8.2560   17.0854   32.7035 H   0  0  0  0  0  0  0  0  0  0  0  0
   -8.1180   15.6781   33.8124 H   0  0  0  0  0  0  0  0  0  0  0  0
  -11.7527   14.3679   31.4071 H   0  0  0  0  0  0  0  0  0  0  0  0
   -9.7145   15.0559   27.4728 H   0  0  0  0  0  0  0  0  0  0  0  0
   -9.3176   17.6543   27.6895 H   0  0  0  0  0  0  0  0  0  0  0  0
   -8.8628   17.9461   25.3064 H   0  0  0  0  0  0  0  0  0  0  0  0
   -9.9036   16.5772   24.8489 H   0  0  0  0  0  0  0  0  0  0  0  0
  -11.7980   16.0222   29.2372 H   0  0  0  0  0  0  0  0  0  0  0  0
   -6.9501   17.4103   24.6121 H   0  0  0  0  0  0  0  0  0  0  0  0
   -6.0773   15.9117   25.0454 H   0  0  0  0  0  0  0  0  0  0  0  0
   -6.7948   18.1295   27.0405 H   0  0  0  0  0  0  0  0  0  0  0  0
  -10.9756   18.8770   27.1829 H   0  0  0  0  0  0  0  0  0  0  0  0
   -5.4055   16.8427   28.5994 H   0  0  0  0  0  0  0  0  0  0  0  0
   -5.0003   15.6541   27.3151 H   0  0  0  0  0  0  0  0  0  0  0  0
   -6.6797   15.7632   27.9401 H   0  0  0  0  0  0  0  0  0  0  0  0
   -4.3948   17.5909   25.2884 H   0  0  0  0  0  0  0  0  0  0  0  0
   -4.0821   18.0967   26.9785 H   0  0  0  0  0  0  0  0  0  0  0  0
   -6.2853   15.6026   22.9005 H   0  0  0  0  0  0  0  0  0  0  0  0
  -10.4457   14.8681   22.6513 H   0  0  0  0  0  0  0  0  0  0  0  0
  -10.4963   15.6429   20.3991 H   0  0  0  0  0  0  0  0  0  0  0  0
   -9.3734   16.5660   18.5077 H   0  0  0  0  0  0  0  0  0  0  0  0
   -7.7062   16.9220   18.4371 H   0  0  0  0  0  0  0  0  0  0  0  0
  -11.7589   15.3467   26.7935 C   0  0  0  0  0  0  0  0  0  0  0  0
  -12.5620   16.0850   26.8965 H   0  0  0  0  0  0  0  0  0  0  0  0
  -11.4562   15.2199   25.7441 H   0  0  0  0  0  0  0  0  0  0  0  0
  -12.2050   14.0329   27.3569 C   0  0  0  0  0  0  0  0  0  0  0  0
  -11.6064   12.8560   27.1667 C   0  0  0  0  0  0  0  0  0  0  0  0
  -13.3725   13.7899   28.1873 C   0  0  0  0  0  0  0  0  0  0  0  0
  -10.7290   12.6911   26.5954 H   0  0  0  0  0  0  0  0  0  0  0  0
  -13.4295   12.5056   28.4524 C   0  0  0  0  0  0  0  0  0  0  0  0
  -15.3550   14.2314   29.4320 C   0  0  0  0  0  0  0  0  0  0  0  0
  -16.0994   14.8830   29.8135 H   0  0  0  0  0  0  0  0  0  0  0  0
  -15.4195   12.7618   29.7335 C   0  0  0  0  0  0  0  0  0  0  0  0
  -16.2097   12.3775   30.3275 H   0  0  0  0  0  0  0  0  0  0  0  0
  -14.4824   11.9354   29.2546 C   0  0  0  0  0  0  0  0  0  0  0  0
  -14.5135   10.8952   29.4575 H   0  0  0  0  0  0  0  0  0  0  0  0
  -14.3605   14.7202   28.6825 C   0  0  0  0  0  0  0  0  0  0  0  0
  -14.3006   15.7552   28.4591 H   0  0  0  0  0  0  0  0  0  0  0  0
  -12.3508   11.8720   27.8432 N   0  0  0  0  0  0  0  0  0  0  0  0
  -12.1488   10.8999   27.8720 H   0  0  0  0  0  0  0  0  0  0  0  0
  -13.4798   13.5482   32.2247 C   0  0  0  0  0  0  0  0  0  0  0  0
  -13.6171   12.1669   32.3109 O   0  5  0  0  0  0  0  0  0  0  0  0
  -14.4686   14.2570   32.0086 O   0  0  0  0  0  0  0  0  0  0  0  0
   -7.1954   16.0986   20.9523 C   0  0  0  0  0  0  0  0  0  0  0  0
   -5.9002   16.6090   20.3197 C   0  0  0  0  0  0  0  0  0  0  0  0
   -6.1106   17.4577   19.6636 H   0  0  0  0  0  0  0  0  0  0  0  0
   -4.9782   17.0790   21.4529 C   0  0  0  0  0  0  0  0  0  0  0  0
   -4.5001   16.2071   21.9207 H   0  0  0  0  0  0  0  0  0  0  0  0
   -4.2065   17.7457   21.0414 H   0  0  0  0  0  0  0  0  0  0  0  0
   -5.5696   17.6217   22.2051 H   0  0  0  0  0  0  0  0  0  0  0  0
   -5.1431   15.5034   19.5539 C   0  0  0  0  0  0  0  0  0  0  0  0
   -5.0398   14.6123   20.1879 H   0  0  0  0  0  0  0  0  0  0  0  0
   -5.6975   15.2442   18.6419 H   0  0  0  0  0  0  0  0  0  0  0  0
   -4.1430   15.8714   19.2843 H   0  0  0  0  0  0  0  0  0  0  0  0
   -5.0369   19.5480   25.7722 N   0  3  0  0  0  0  0  0  0  0  0  0
   -5.8779   19.5998   25.1822 H   0  0  0  0  0  0  0  0  0  0  0  0
   -4.2382   19.9100   25.2391 H   0  0  0  0  0  0  0  0  0  0  0  0
   -5.1832   20.1271   26.6065 H   0  0  0  0  0  0  0  0  0  0  0  0
  1  7  2  0  0  0  0
  1  8  2  0  0  0  0
  1 10  1  0  0  0  0
  1 24  1  0  0  0  0
  2 13  1  0  0  0  0
  2 16  1  0  0  0  0
  3 13  1  0  0  0  0
  3 17  1  0  0  0  0
  4 14  1  0  0  0  0
  4 20  1  0  0  0  0
  5 19  1  0  0  0  0
  5 47  1  0  0  0  0
  6 20  2  0  0  0  0
  9 18  1  0  0  0  0
  9 20  1  0  0  0  0
  9 43  1  0  0  0  0
 10 21  1  0  0  0  0
 10 22  1  0  0  0  0
 11 30  1  0  0  0  0
 11 56  1  0  0  0  0
 11 57  1  0  0  0  0
 12 13  1  0  0  0  0
 12 14  1  0  0  0  0
 12 15  1  0  0  0  0
 12 31  1  0  0  0  0
 13 32  1  0  0  0  0
 14 16  1  0  0  0  0
 14 33  1  0  0  0  0
 15 17  1  0  0  0  0
 15 34  1  0  0  0  0
 15 35  1  0  0  0  0
 16 36  1  0  0  0  0
 16 37  1  0  0  0  0
 17 38  1  0  0  0  0
 17 76  1  0  0  0  0
 18 19  1  0  0  0  0
 18 39  1  0  0  0  0
 18 58  1  0  0  0  0
 19 21  1  0  0  0  0
 19 40  1  0  0  0  0
 21 41  1  0  0  0  0
 21 42  1  0  0  0  0
 22 23  1  0  0  0  0
 22 44  1  0  0  0  0
 22 45  1  0  0  0  0
 23 25  1  0  0  0  0
 23 26  1  0  0  0  0
 23 46  1  0  0  0  0
 24 27  2  0  0  0  0
 24 28  1  0  0  0  0
 25 48  1  0  0  0  0
 25 49  1  0  0  0  0
 25 50  1  0  0  0  0
 26 51  1  0  0  0  0
 26 52  1  0  0  0  0
 26 90  1  0  0  0  0
 27 53  1  0  0  0  0
 27 79  1  0  0  0  0
 28 29  2  0  0  0  0
 28 54  1  0  0  0  0
 29 30  1  0  0  0  0
 29 55  1  0  0  0  0
 30 79  2  0  0  0  0
 58 59  1  0  0  0  0
 58 60  1  0  0  0  0
 58 61  1  0  0  0  0
 61 62  2  0  0  0  0
 61 63  1  0  0  0  0
 62 64  1  0  0  0  0
 62 74  1  0  0  0  0
 63 65  2  0  0  0  0
 63 72  1  0  0  0  0
 65 70  1  0  0  0  0
 65 74  1  0  0  0  0
 66 67  1  0  0  0  0
 66 68  1  0  0  0  0
 66 72  2  0  0  0  0
 68 69  1  0  0  0  0
 68 70  2  0  0  0  0
 70 71  1  0  0  0  0
 72 73  1  0  0  0  0
 74 75  1  0  0  0  0
 76 77  1  0  0  0  0
 76 78  2  0  0  0  0
 79 80  1  0  0  0  0
 80 81  1  0  0  0  0
 80 82  1  0  0  0  0
 80 86  1  0  0  0  0
 82 83  1  0  0  0  0
 82 84  1  0  0  0  0
 82 85  1  0  0  0  0
 86 87  1  0  0  0  0
 86 88  1  0  0  0  0
 86 89  1  0  0  0  0
 90 91  1  0  0  0  0
 90 92  1  0  0  0  0
 90 93  1  0  0  0  0
M  CHG  1  77  -1
M  CHG  1  90   1
M  END
> <Clean Energy>
141.67

> <Gold.Version>
5.6.1

> <Gold.Id.Protein>
ID|ID_protein|mol2

> <Gold.Goldscore.Fitness>
99.0657

> <Gold.Goldscore.Internal.Vdw>
-12.5019

> <Gold.Goldscore.Internal.Torsion>
-20.1383

> <Gold.Goldscore.External.Vdw>
67.4710

> <Gold.Goldscore.Internal.HBond>
0.0000

> <Gold.Goldscore.External.HBond>
18.6833

> <Gold.Goldscore.Internal.Correction>
-20.2500

> <Gold.Goldscore.Reference.RMSD>
7.7456

> <Gold.Goldscore.Hbonds>
donor molecule, donor type, donor heavy atom, donor atom, acceptor molecule, acceptor atom, score
      P1  H   976  2166       L1     3  0.19
      P1  H    73  2240       L1    78  0.79
      P1  H   984  2167       L1     2  0.47
      L1  H     5    47       P1   958  1.00
      L1  H     9    43       P1   970  0.03
      L1  H    11    56       P1   227  0.20
      L1  H    90    91       P1   210  0.50

> <Gold.Goldscore.Internal.Vdw.Weighted>
-12.5019

> <Gold.Goldscore.Internal.Torsion.Weighted>
-20.1383

> <Gold.Goldscore.External.Vdw.Weighted>
92.7726

> <Gold.Goldscore.Internal.HBond.Weighted>
0.0000

> <Gold.Goldscore.External.HBond.Weighted>
18.6833

> <Gold.Goldscore.Internal.Correction.Weighted>
-20.2500

> <Gold.Reference.RMSD>
7.7456

> <Gold.Protein.RotatedTorsions>
[ 1648  237  236  233 ] final  -92.44 input   60.00 | X-H torsion
[ 1672  356  355  354 ] final  -37.40 input   60.00 | X-H torsion
[ 1841  613  612  609 ] final   61.98 input   60.00 | X-H torsion
[ 3049 1373 1372 1369 ] final   86.95 input   60.00 | X-H torsion
[ 1557  205  204  201 ] final  -31.46 input   60.00 | X-H torsion
[ 2168  965  964  961 ] final    9.00 input   60.00 | X-H torsion
[ 2192  997  996  993 ] final   49.92 input   60.00 | X-H torsion
[ 2139 1116 1115 1114 ] final -167.91 input   60.00 | X-H torsion

> <Gold.Protein.ActiveResidues>
 LEU5    ARG8    PRO9    LEU10   ALA22   LEU23   LEU24   ASP25   THR26   GLY27  
 ALA28   ASP29   ASP30   THR31   VAL32   LEU33   GLU34   LYS45   MET46   ILE47  
 GLY48   GLY49   ILE50   GLY51   GLY52   PHE53   ILE54   VAL56   GLN58   THR74  
 VAL75   LEU76   VAL77   PRO79   THR80   PRO81   VAL82   ASN83   ILE84   ILE85  
 GLY86   ARG87   ASN88   LEU89   LEU90   LEU97   ARG8    PRO9    LEU10   ALA22  
 LEU23   LEU24   ASP25   THR26   GLY27   ALA28   ASP29   ASP30   THR31   VAL32  
 LEU33   GLU34   LYS45   MET46   ILE47   GLY48   GLY49   ILE50   GLY51   GLY52  
 PHE53   ILE54   VAL56   THR74   VAL75   LEU76   PRO79   THR80   PRO81   VAL82  
 ASN83   ILE84   ILE85   GLY86   ARG87   ASN88   LEU89   LEU90   LEU97  

> <Gold.Protein.RotatedAtoms>
  -12.6648   24.0071   26.6923 H   0  0  0  0  0  0  0  0  0  0  0  0  # atno 1557 bound_to 205 
  -16.2570   18.7286   17.0899 H   0  0  0  0  0  0  0  0  0  0  0  0  # atno 1648 bound_to 237 
   -4.0054   14.0418   11.9030 H   0  0  0  0  0  0  0  0  0  0  0  0  # atno 1672 bound_to 356 
   -4.8387   15.4678   11.7627 H   0  0  0  0  0  0  0  0  0  0  0  0  # atno 1673 bound_to 356 
   -4.0572   15.1004   13.1775 H   0  0  0  0  0  0  0  0  0  0  0  0  # atno 1674 bound_to 356 
  -12.7037   10.4063   23.3769 H   0  0  0  0  0  0  0  0  0  0  0  0  # atno 1841 bound_to 613 
  -10.9763   12.9681   40.2013 H   0  0  0  0  0  0  0  0  0  0  0  0  # atno 2139 bound_to 1116
   -9.6033   13.8032   40.6069 H   0  0  0  0  0  0  0  0  0  0  0  0  # atno 2140 bound_to 1116
   -9.6114   12.8199   39.2727 H   0  0  0  0  0  0  0  0  0  0  0  0  # atno 2141 bound_to 1116
  -14.7376   22.3743   26.8818 H   0  0  0  0  0  0  0  0  0  0  0  0  # atno 2168 bound_to 965 
   -9.2270   22.3084   37.0394 H   0  0  0  0  0  0  0  0  0  0  0  0  # atno 2192 bound_to 997 
   -2.9768   16.3100   30.3134 H   0  0  0  0  0  0  0  0  0  0  0  0  # atno 3049 bound_to 1373
  -15.8788   19.1543   15.5655 LP  0  0  0  0  0  0  0  0  0  0  0  0  # atno 3161 bound_to 237 
  -14.7163   19.0895   16.7105 LP  0  0  0  0  0  0  0  0  0  0  0  0  # atno 3162 bound_to 237 
  -14.2689    9.9629   23.4145 LP  0  0  0  0  0  0  0  0  0  0  0  0  # atno 3183 bound_to 613 
  -13.7940   11.2139   22.4786 LP  0  0  0  0  0  0  0  0  0  0  0  0  # atno 3184 bound_to 613 
   -1.5801   16.9652   29.7957 LP  0  0  0  0  0  0  0  0  0  0  0  0  # atno 3221 bound_to 1373
   -2.5116   17.7660   30.8717 LP  0  0  0  0  0  0  0  0  0  0  0  0  # atno 3222 bound_to 1373
  -12.9015   25.5818   27.0275 LP  0  0  0  0  0  0  0  0  0  0  0  0  # atno 3235 bound_to 205 
  -11.4177   25.0486   26.6023 LP  0  0  0  0  0  0  0  0  0  0  0  0  # atno 3236 bound_to 205 
  -14.9717   23.9103   26.3983 LP  0  0  0  0  0  0  0  0  0  0  0  0  # atno 3271 bound_to 965 
  -16.2499   22.9214   26.6332 LP  0  0  0  0  0  0  0  0  0  0  0  0  # atno 3272 bound_to 965 
   -8.2124   23.1450   36.0809 LP  0  0  0  0  0  0  0  0  0  0  0  0  # atno 3287 bound_to 997 
   -8.3792   23.5546   37.6528 LP  0  0  0  0  0  0  0  0  0  0  0  0  # atno 3288 bound_to 997 

$$$$
